electric-grid/physical/synthetic/texas2000/models/texas2000_june2016.epc
title
!
comments
!
solution parameters
tap    1    tcul  enabled/disabled
phas   1    ps    enabled/disabled
area   1    area  enabled/disabled
svd    1    svd   enabled/disabled
dctap  1    dc    enabled/disabled
gcd    0    gcd   enabled/disabled
jump  0.000200    jumper threshold
toler   0.1000    newton tolerance
sbase 100.0000    system mva base
!
bus data  [2007]               ty  vsched   volt     angle    ar zone  vmax   vmin   date_in date_out pid L own st  latitude  longitude island    sdmon   vmax1      vmin1      dvmax
      1 "Glen Rose ~4"  13.8000 :  0 1.04000 1.040000   0.00000   1    1 1.1000 0.9000   400101   391231   0 0   1 0    0.00000    0.00000 0    0.00000    0.00000    0.00000
      2 "Dallas 115  " 115.0000 :  1 0.981038 0.981038 -16.83769   1    1 1.1000 0.9000   400101   391231   0 0   1 0    0.00000    0.00000 0    0.00000    0.00000    0.00000
      3 "Allen 115   " 115.0000 :  1 0.994164 0.994164 -14.84085   1    1 1.1000 0.9000   400101   391231   0 0   1 0    0.00000    0.00000 0    0.00000    0.00000    0.00000
      4 "Carrollton~2" 115.0000 :  1 0.986222 0.986222 -16.26127   1    1 1.1000 0.9000   400101   391231   0 0   1 0    0.00000    0.00000 0    0.00000    0.00000    0.00000
      5 "Carrollton~3" 115.0000 :  1 0.983037 0.983037 -16.76437   1    1 1.1000 0.9000   400101   391231   0 0   1 0    0.00000    0.00000 0    0.00000    0.00000    0.00000
      6 "Celina 115  " 115.0000 :  1 0.986558 0.986558 -14.21715   1    1 1.1000 0.9000   400101   391231   0 0   1 0    0.00000    0.00000 0    0.00000    0.00000    0.00000
      7 "The Colony~1" 115.0000 :  1 0.981515 0.981515 -16.80638   1    1 1.1000 0.9000   400101   391231   0 0   1 0    0.00000    0.00000 0    0.00000    0.00000    0.00000
      8 "Allen 2 115 " 115.0000 :  1 0.988462 0.988462 -15.50919   1    1 1.1000 0.9000   400101   391231   0 0   1 0    0.00000    0.00000 0    0.00000    0.00000    0.00000
      9 "Coppell 115 " 115.0000 :  1 0.987419 0.987419 -16.13250   1    1 1.1000 0.9000   400101   391231   0 0   1 0    0.00000    0.00000 0    0.00000    0.00000    0.00000
     10 "Denison 115 " 115.0000 :  1 1.007589 1.007589  -8.97848   2    1 1.1000 0.9000   400101   391231   0 0   1 0    0.00000    0.00000 0    0.00000    0.00000    0.00000
     11 "Denison 2 ~1" 115.0000 :  1 0.999082 0.999082 -10.54674   2    1 1.1000 0.9000   400101   391231   0 0   1 0    0.00000    0.00000 0    0.00000    0.00000    0.00000
     12 "Flower Mou~1" 115.0000 :  1 0.978956 0.978956 -17.72651   1    1 1.1000 0.9000   400101   391231   0 0   1 0    0.00000    0.00000 0    0.00000    0.00000    0.00000
     13 "Plano 115   " 115.0000 :  1 0.989075 0.989075 -15.68798   1    1 1.1000 0.9000   400101   391231   0 0   1 0    0.00000    0.00000 0    0.00000    0.00000    0.00000
     14 "Plano 2 115 " 115.0000 :  1 0.986965 0.986965 -16.02950   1    1 1.1000 0.9000   400101   391231   0 0   1 0    0.00000    0.00000 0    0.00000    0.00000    0.00000
     15 "Flower Mou~2" 115.0000 :  1 0.977873 0.977873 -17.34190   1    1 1.1000 0.9000   400101   391231   0 0   1 0    0.00000    0.00000 0    0.00000    0.00000    0.00000
     16 "Rockwall 115" 115.0000 :  1 0.978807 0.978807 -16.12437   1    1 1.1000 0.9000   400101   391231   0 0   1 0    0.00000    0.00000 0    0.00000    0.00000    0.00000
     17 "Frisco 115  " 115.0000 :  1 0.979843 0.979843 -16.78816   1    1 1.1000 0.9000   400101   391231   0 0   1 0    0.00000    0.00000 0    0.00000    0.00000    0.00000
     18 "Frisco 2 115" 115.0000 :  1 0.982228 0.982228 -15.46292   1    1 1.1000 0.9000   400101   391231   0 0   1 0    0.00000    0.00000 0    0.00000    0.00000    0.00000
     19 "Irving 115  " 115.0000 :  1 0.988136 0.988136 -15.08336   1    1 1.1000 0.9000   400101   391231   0 0   1 0    0.00000    0.00000 0    0.00000    0.00000    0.00000
     20 "Irving 2 115" 115.0000 :  1 0.986465 0.986465 -15.43009   1    1 1.1000 0.9000   400101   391231   0 0   1 0    0.00000    0.00000 0    0.00000    0.00000    0.00000
     21 "Garland 115 " 115.0000 :  1 0.981605 0.981605 -16.62122   1    1 1.1000 0.9000   400101   391231   0 0   1 0    0.00000    0.00000 0    0.00000    0.00000    0.00000
     22 "Garland 2 ~1" 115.0000 :  1 0.979148 0.979148 -16.91995   1    1 1.1000 0.9000   400101   391231   0 0   1 0    0.00000    0.00000 0    0.00000    0.00000    0.00000
     23 "Garland 3 ~1" 115.0000 :  1 0.981288 0.981288 -16.64882   1    1 1.1000 0.9000   400101   391231   0 0   1 0    0.00000    0.00000 0    0.00000    0.00000    0.00000
     24 "Garland 4 ~1" 115.0000 :  1 0.986159 0.986159 -16.16158   1    1 1.1000 0.9000   400101   391231   0 0   1 0    0.00000    0.00000 0    0.00000    0.00000    0.00000
     25 "Rowlett 115 " 115.0000 :  1 0.988942 0.988942 -15.84605   1    1 1.1000 0.9000   400101   391231   0 0   1 0    0.00000    0.00000 0    0.00000    0.00000    0.00000
     26 "Grand Prai~1" 115.0000 :  1 0.982323 0.982323 -15.55107   1    1 1.1000 0.9000   400101   391231   0 0   1 0    0.00000    0.00000 0    0.00000    0.00000    0.00000
     27 "Grand Prai~2" 115.0000 :  1 0.990279 0.990279 -14.71169   1    1 1.1000 0.9000   400101   391231   0 0   1 0    0.00000    0.00000 0    0.00000    0.00000    0.00000
     28 "Grand Prai~5" 115.0000 :  1 0.984113 0.984113 -15.50702   1    1 1.1000 0.9000   400101   391231   0 0   1 0    0.00000    0.00000 0    0.00000    0.00000    0.00000
     29 "Grand Prai~6" 115.0000 :  1 0.982082 0.982082 -15.02362   1    1 1.1000 0.9000   400101   391231   0 0   1 0    0.00000    0.00000 0    0.00000    0.00000    0.00000
     30 "Lewisville~1" 115.0000 :  1 0.981223 0.981223 -16.96832   1    1 1.1000 0.9000   400101   391231   0 0   1 0    0.00000    0.00000 0    0.00000    0.00000    0.00000
     31 "Gunter 115  " 115.0000 :  1 0.984257 0.984257 -14.64270   2    1 1.1000 0.9000   400101   391231   0 0   1 0    0.00000    0.00000 0    0.00000    0.00000    0.00000
     32 "Irving 3 115" 115.0000 :  1 0.987322 0.987322 -15.46406   1    1 1.1000 0.9000   400101   391231   0 0   1 0    0.00000    0.00000 0    0.00000    0.00000    0.00000
     33 "Lake Dalla~1" 115.0000 :  1 0.976494 0.976494 -18.08485   1    1 1.1000 0.9000   400101   391231   0 0   1 0    0.00000    0.00000 0    0.00000    0.00000    0.00000
     34 "Little Elm~1" 115.0000 :  1 0.970144 0.970144 -17.62445   1    1 1.1000 0.9000   400101   391231   0 0   1 0    0.00000    0.00000 0    0.00000    0.00000    0.00000
     35 "Mckinney 115" 115.0000 :  1 0.999155 0.999155 -13.56332   1    1 1.1000 0.9000   400101   391231   0 0   1 0    0.00000    0.00000 0    0.00000    0.00000    0.00000
     36 "Mckinney 2~1" 115.0000 :  1 0.980431 0.980431 -15.58157   1    1 1.1000 0.9000   400101   391231   0 0   1 0    0.00000    0.00000 0    0.00000    0.00000    0.00000
     37 "Mckinney 3~1" 115.0000 :  1 0.992595 0.992595 -14.16232   1    1 1.1000 0.9000   400101   391231   0 0   1 0    0.00000    0.00000 0    0.00000    0.00000    0.00000
     38 "Plano 3 115 " 115.0000 :  1 0.989244 0.989244 -15.57890   1    1 1.1000 0.9000   400101   391231   0 0   1 0    0.00000    0.00000 0    0.00000    0.00000    0.00000
     39 "Plano 4 115 " 115.0000 :  1 0.985891 0.985891 -16.20694   1    1 1.1000 0.9000   400101   391231   0 0   1 0    0.00000    0.00000 0    0.00000    0.00000    0.00000
     40 "Pottsboro ~1" 115.0000 :  1 1.004451 1.004451  -9.75251   2    1 1.1000 0.9000   400101   391231   0 0   1 0    0.00000    0.00000 0    0.00000    0.00000    0.00000
     41 "Lewisville~2" 115.0000 :  1 0.975434 0.975434 -18.36422   1    1 1.1000 0.9000   400101   391231   0 0   1 0    0.00000    0.00000 0    0.00000    0.00000    0.00000
     42 "Prosper 115 " 115.0000 :  1 0.991257 0.991257 -14.67993   1    1 1.1000 0.9000   400101   391231   0 0   1 0    0.00000    0.00000 0    0.00000    0.00000    0.00000
     43 "Richardson~1" 115.0000 :  1 0.983898 0.983898 -16.51476   1    1 1.1000 0.9000   400101   391231   0 0   1 0    0.00000    0.00000 0    0.00000    0.00000    0.00000
     44 "Rockwall 2~1" 115.0000 :  1 0.987908 0.987908 -15.30833   1    1 1.1000 0.9000   400101   391231   0 0   1 0    0.00000    0.00000 0    0.00000    0.00000    0.00000
     45 "Rowlett 2 ~1" 115.0000 :  1 0.985980 0.985980 -16.51198   1    1 1.1000 0.9000   400101   391231   0 0   1 0    0.00000    0.00000 0    0.00000    0.00000    0.00000
     46 "Sherman 115 " 115.0000 :  1 0.996967 0.996967 -10.90313   2    1 1.1000 0.9000   400101   391231   0 0   1 0    0.00000    0.00000 0    0.00000    0.00000    0.00000
     47 "Sherman 2 ~1" 115.0000 :  1 0.994175 0.994175 -11.72886   2    1 1.1000 0.9000   400101   391231   0 0   1 0    0.00000    0.00000 0    0.00000    0.00000    0.00000
     48 "Plano 5 115 " 115.0000 :  1 0.994447 0.994447 -14.94730   1    1 1.1000 0.9000   400101   391231   0 0   1 0    0.00000    0.00000 0    0.00000    0.00000    0.00000
     49 "Wylie 115   " 115.0000 :  1 0.993876 0.993876 -14.39399   1    1 1.1000 0.9000   400101   391231   0 0   1 0    0.00000    0.00000 0    0.00000    0.00000    0.00000
     50 "Wylie 2 115 " 115.0000 :  1 0.997532 0.997532 -13.31748   1    1 1.1000 0.9000   400101   391231   0 0   1 0    0.00000    0.00000 0    0.00000    0.00000    0.00000
     51 "Barry 115   " 115.0000 :  1 1.019997 1.019997 -10.34218   1    1 1.1000 0.9000   400101   391231   0 0   1 0    0.00000    0.00000 0    0.00000    0.00000    0.00000
     52 "Canton 115  " 115.0000 :  1 1.002664 1.002664 -15.53384   3    1 1.1000 0.9000   400101   391231   0 0   1 0    0.00000    0.00000 0    0.00000    0.00000    0.00000
     53 "Cedar Hill~1" 115.0000 :  1 0.980133 0.980133 -16.03078   1    1 1.1000 0.9000   400101   391231   0 0   1 0    0.00000    0.00000 0    0.00000    0.00000    0.00000
     54 "Chatfield ~1" 115.0000 :  1 1.007907 1.007907 -11.99345   1    1 1.1000 0.9000   400101   391231   0 0   1 0    0.00000    0.00000 0    0.00000    0.00000    0.00000
     55 "Corsicana ~1" 115.0000 :  1 1.010499 1.010499 -11.15408   1    1 1.1000 0.9000   400101   391231   0 0   1 0    0.00000    0.00000 0    0.00000    0.00000    0.00000
     56 "Corsicana ~2" 115.0000 :  1 1.020216 1.020216  -9.91114   1    1 1.1000 0.9000   400101   391231   0 0   1 0    0.00000    0.00000 0    0.00000    0.00000    0.00000
     57 "Crandall 115" 115.0000 :  1 0.993998 0.993998 -16.40217   1    1 1.1000 0.9000   400101   391231   0 0   1 0    0.00000    0.00000 0    0.00000    0.00000    0.00000
     58 "Desoto 115  " 115.0000 :  1 1.008729 1.008729 -17.00657   1    1 1.1000 0.9000   400101   391231   0 0   1 0    0.00000    0.00000 0    0.00000    0.00000    0.00000
     59 "Duncanvill~1" 115.0000 :  1 0.979112 0.979112 -16.21413   1    1 1.1000 0.9000   400101   391231   0 0   1 0    0.00000    0.00000 0    0.00000    0.00000    0.00000
     60 "Edgewood 115" 115.0000 :  1 1.008007 1.008007 -15.02407   3    1 1.1000 0.9000   400101   391231   0 0   1 0    0.00000    0.00000 0    0.00000    0.00000    0.00000
     61 "Ennis 115   " 115.0000 :  1 0.995713 0.995713 -13.48303   1    1 1.1000 0.9000   400101   391231   0 0   1 0    0.00000    0.00000 0    0.00000    0.00000    0.00000
     62 "Eustace 115 " 115.0000 :  1 0.998644 0.998644 -15.27765   3    1 1.1000 0.9000   400101   391231   0 0   1 0    0.00000    0.00000 0    0.00000    0.00000    0.00000
     63 "Ferris 115  " 115.0000 :  1 0.992888 0.992888 -15.01625   1    1 1.1000 0.9000   400101   391231   0 0   1 0    0.00000    0.00000 0    0.00000    0.00000    0.00000
     64 "Forney 115  " 115.0000 :  1 1.002937 1.002937 -17.09779   1    1 1.1000 0.9000   400101   391231   0 0   1 0    0.00000    0.00000 0    0.00000    0.00000    0.00000
     65 "Fruitvale ~1" 115.0000 :  1 1.010831 1.010831 -14.58460   3    1 1.1000 0.9000   400101   391231   0 0   1 0    0.00000    0.00000 0    0.00000    0.00000    0.00000
     66 "Fruitvale ~2" 115.0000 :  1 0.990703 0.990703 -15.84122   1    1 1.1000 0.9000   400101   391231   0 0   1 0    0.00000    0.00000 0    0.00000    0.00000    0.00000
     67 "Lancaster ~1" 115.0000 :  1 0.983238 0.983238 -17.18197   1    1 1.1000 0.9000   400101   391231   0 0   1 0    0.00000    0.00000 0    0.00000    0.00000    0.00000
     68 "Caddo Mill~1" 115.0000 :  1 0.989970 0.989970 -15.47734   1    1 1.1000 0.9000   400101   391231   0 0   1 0    0.00000    0.00000 0    0.00000    0.00000    0.00000
     69 "Grand Sali~1" 115.0000 :  1 1.012304 1.012304 -14.04344   3    1 1.1000 0.9000   400101   391231   0 0   1 0    0.00000    0.00000 0    0.00000    0.00000    0.00000
     70 "Hutchins 115" 115.0000 :  1 0.986034 0.986034 -16.05910   1    1 1.1000 0.9000   400101   391231   0 0   1 0    0.00000    0.00000 0    0.00000    0.00000    0.00000
     71 "Kaufman 115 " 115.0000 :  1 0.977805 0.977805 -16.74610   1    1 1.1000 0.9000   400101   391231   0 0   1 0    0.00000    0.00000 0    0.00000    0.00000    0.00000
     72 "Kemp 115    " 115.0000 :  1 0.995830 0.995830 -14.27176   1    1 1.1000 0.9000   400101   391231   0 0   1 0    0.00000    0.00000 0    0.00000    0.00000    0.00000
     73 "Kerens 115  " 115.0000 :  1 1.000442 1.000442 -13.93170   1    1 1.1000 0.9000   400101   391231   0 0   1 0    0.00000    0.00000 0    0.00000    0.00000    0.00000
     74 "Lancaster ~2" 115.0000 :  1 0.982411 0.982411 -16.72346   1    1 1.1000 0.9000   400101   391231   0 0   1 0    0.00000    0.00000 0    0.00000    0.00000    0.00000
     75 "Mabank 115  " 115.0000 :  1 0.988910 0.988910 -16.14716   1    1 1.1000 0.9000   400101   391231   0 0   1 0    0.00000    0.00000 0    0.00000    0.00000    0.00000
     76 "Malakoff 115" 115.0000 :  1 1.027291 1.027291 -12.57900   3    1 1.1000 0.9000   400101   391231   0 0   1 0    0.00000    0.00000 0    0.00000    0.00000    0.00000
     77 "Mesquite 115" 115.0000 :  1 0.975171 0.975171 -17.22479   1    1 1.1000 0.9000   400101   391231   0 0   1 0    0.00000    0.00000 0    0.00000    0.00000    0.00000
     78 "Mesquite 2~1" 115.0000 :  1 0.975929 0.975929 -17.24515   1    1 1.1000 0.9000   400101   391231   0 0   1 0    0.00000    0.00000 0    0.00000    0.00000    0.00000
     79 "Palmer 115  " 115.0000 :  1 1.004369 1.004369 -13.51695   1    1 1.1000 0.9000   400101   391231   0 0   1 0    0.00000    0.00000 0    0.00000    0.00000    0.00000
     80 "Powell 115  " 115.0000 :  1 1.005155 1.005155 -12.25943   1    1 1.1000 0.9000   400101   391231   0 0   1 0    0.00000    0.00000 0    0.00000    0.00000    0.00000
     81 "Red Oak 115 " 115.0000 :  1 0.974242 0.974242 -16.15199   1    1 1.1000 0.9000   400101   391231   0 0   1 0    0.00000    0.00000 0    0.00000    0.00000    0.00000
     82 "Rice 115    " 115.0000 :  1 1.002732 1.002732 -12.61202   1    1 1.1000 0.9000   400101   391231   0 0   1 0    0.00000    0.00000 0    0.00000    0.00000    0.00000
     83 "Mabank 2 115" 115.0000 :  1 1.008743 1.008743 -14.34145   1    1 1.1000 0.9000   400101   391231   0 0   1 0    0.00000    0.00000 0    0.00000    0.00000    0.00000
     84 "Scurry 115  " 115.0000 :  1 1.003278 1.003278 -14.19221   1    1 1.1000 0.9000   400101   391231   0 0   1 0    0.00000    0.00000 0    0.00000    0.00000    0.00000
     85 "Seagoville~1" 115.0000 :  1 0.990350 0.990350 -15.78196   1    1 1.1000 0.9000   400101   391231   0 0   1 0    0.00000    0.00000 0    0.00000    0.00000    0.00000
     86 "Terrell 115 " 115.0000 :  1 0.998978 0.998978 -15.19189   1    1 1.1000 0.9000   400101   391231   0 0   1 0    0.00000    0.00000 0    0.00000    0.00000    0.00000
     87 "Terrell 2 ~1" 115.0000 :  1 1.004550 1.004550 -12.68337   1    1 1.1000 0.9000   400101   391231   0 0   1 0    0.00000    0.00000 0    0.00000    0.00000    0.00000
     88 "Trinidad 115" 115.0000 :  1 1.025552 1.025552 -12.83921   3    1 1.1000 0.9000   400101   391231   0 0   1 0    0.00000    0.00000 0    0.00000    0.00000    0.00000
     89 "Trinidad 2~1" 115.0000 :  1 0.996296 0.996296 -15.72356   1    1 1.1000 0.9000   400101   391231   0 0   1 0    0.00000    0.00000 0    0.00000    0.00000    0.00000
     90 "Waxahachie~1" 115.0000 :  1 0.999580 0.999580 -14.71639   1    1 1.1000 0.9000   400101   391231   0 0   1 0    0.00000    0.00000 0    0.00000    0.00000    0.00000
     91 "Lavon 115   " 115.0000 :  1 0.990677 0.990677 -14.54052   1    1 1.1000 0.9000   400101   391231   0 0   1 0    0.00000    0.00000 0    0.00000    0.00000    0.00000
     92 "Waxahachie~2" 115.0000 :  1 0.999376 0.999376 -14.29866   1    1 1.1000 0.9000   400101   391231   0 0   1 0    0.00000    0.00000 0    0.00000    0.00000    0.00000
     93 "Wills Poin~1" 115.0000 :  1 1.003707 1.003707 -15.72885   3    1 1.1000 0.9000   400101   391231   0 0   1 0    0.00000    0.00000 0    0.00000    0.00000    0.00000
     94 "Nevada 115  " 115.0000 :  1 0.994664 0.994664 -13.60762   1    1 1.1000 0.9000   400101   391231   0 0   1 0    0.00000    0.00000 0    0.00000    0.00000    0.00000
     95 "Balch Spri~1" 115.0000 :  1 0.973193 0.973193 -17.03240   1    1 1.1000 0.9000   400101   391231   0 0   1 0    0.00000    0.00000 0    0.00000    0.00000    0.00000
     96 "Mesquite 3~1" 115.0000 :  1 1.001922 1.001922 -17.96940   1    1 1.1000 0.9000   400101   391231   0 0   1 0    0.00000    0.00000 0    0.00000    0.00000    0.00000
     97 "Sunnyvale ~1" 115.0000 :  1 1.001816 1.001816 -17.45843   1    1 1.1000 0.9000   400101   391231   0 0   1 0    0.00000    0.00000 0    0.00000    0.00000    0.00000
     98 "Royse City~1" 115.0000 :  1 0.993454 0.993454 -16.28861   1    1 1.1000 0.9000   400101   391231   0 0   1 0    0.00000    0.00000 0    0.00000    0.00000    0.00000
     99 "Dallas 2 115" 115.0000 :  1 0.979682 0.979682 -16.56543   1    1 1.1000 0.9000   400101   391231   0 0   1 0    0.00000    0.00000 0    0.00000    0.00000    0.00000
    100 "Dallas 3 115" 115.0000 :  1 0.986194 0.986194 -15.49003   1    1 1.1000 0.9000   400101   391231   0 0   1 0    0.00000    0.00000 0    0.00000    0.00000    0.00000
    101 "Dallas 4 115" 115.0000 :  1 0.979767 0.979767 -16.52004   1    1 1.1000 0.9000   400101   391231   0 0   1 0    0.00000    0.00000 0    0.00000    0.00000    0.00000
    102 "Dallas 5 115" 115.0000 :  1 0.981457 0.981457 -16.28907   1    1 1.1000 0.9000   400101   391231   0 0   1 0    0.00000    0.00000 0    0.00000    0.00000    0.00000
    103 "Dallas 6 115" 115.0000 :  1 0.975888 0.975888 -17.08850   1    1 1.1000 0.9000   400101   391231   0 0   1 0    0.00000    0.00000 0    0.00000    0.00000    0.00000
    104 "Dallas 7 115" 115.0000 :  1 0.979129 0.979129 -16.19204   1    1 1.1000 0.9000   400101   391231   0 0   1 0    0.00000    0.00000 0    0.00000    0.00000    0.00000
    105 "Dallas 8 115" 115.0000 :  1 0.987031 0.987031 -15.38770   1    1 1.1000 0.9000   400101   391231   0 0   1 0    0.00000    0.00000 0    0.00000    0.00000    0.00000
    106 "Dallas 9 115" 115.0000 :  1 0.978146 0.978146 -17.13981   1    1 1.1000 0.9000   400101   391231   0 0   1 0    0.00000    0.00000 0    0.00000    0.00000    0.00000
    107 "Dallas 10 ~1" 115.0000 :  1 0.978086 0.978086 -16.76833   1    1 1.1000 0.9000   400101   391231   0 0   1 0    0.00000    0.00000 0    0.00000    0.00000    0.00000
    108 "Dallas 11 ~1" 115.0000 :  1 0.976272 0.976272 -17.23916   1    1 1.1000 0.9000   400101   391231   0 0   1 0    0.00000    0.00000 0    0.00000    0.00000    0.00000
    109 "Dallas 12 ~1" 115.0000 :  1 0.983159 0.983159 -16.58328   1    1 1.1000 0.9000   400101   391231   0 0   1 0    0.00000    0.00000 0    0.00000    0.00000    0.00000
    110 "Dallas 13 ~1" 115.0000 :  1 0.982750 0.982750 -16.18181   1    1 1.1000 0.9000   400101   391231   0 0   1 0    0.00000    0.00000 0    0.00000    0.00000    0.00000
    111 "Dallas 14 ~1" 115.0000 :  1 0.975734 0.975734 -17.11272   1    1 1.1000 0.9000   400101   391231   0 0   1 0    0.00000    0.00000 0    0.00000    0.00000    0.00000
    112 "Dallas 15 ~1" 115.0000 :  1 0.977956 0.977956 -16.94106   1    1 1.1000 0.9000   400101   391231   0 0   1 0    0.00000    0.00000 0    0.00000    0.00000    0.00000
    113 "Dallas 16 ~1" 115.0000 :  1 0.978927 0.978927 -16.79583   1    1 1.1000 0.9000   400101   391231   0 0   1 0    0.00000    0.00000 0    0.00000    0.00000    0.00000
    114 "Dallas 17 ~1" 115.0000 :  1 0.982370 0.982370 -17.56010   1    1 1.1000 0.9000   400101   391231   0 0   1 0    0.00000    0.00000 0    0.00000    0.00000    0.00000
    115 "Dallas 18 ~1" 115.0000 :  1 0.984211 0.984211 -16.53168   1    1 1.1000 0.9000   400101   391231   0 0   1 0    0.00000    0.00000 0    0.00000    0.00000    0.00000
    116 "Greenville~1" 115.0000 :  1 0.991101 0.991101 -13.44938   1    1 1.1000 0.9000   400101   391231   0 0   1 0    0.00000    0.00000 0    0.00000    0.00000    0.00000
    117 "Greenville~2" 115.0000 :  1 1.002460 1.002460 -14.01213   1    1 1.1000 0.9000   400101   391231   0 0   1 0    0.00000    0.00000 0    0.00000    0.00000    0.00000
    118 "Princeton ~1" 115.0000 :  1 0.991532 0.991532 -14.58648   1    1 1.1000 0.9000   400101   391231   0 0   1 0    0.00000    0.00000 0    0.00000    0.00000    0.00000
    119 "Anna 115    " 115.0000 :  1 1.001746 1.001746 -12.03116   1    1 1.1000 0.9000   400101   391231   0 0   1 0    0.00000    0.00000 0    0.00000    0.00000    0.00000
    120 "Arthur Cit~1" 115.0000 :  1 0.997692 0.997692 -11.87940   2    1 1.1000 0.9000   400101   391231   0 0   1 0    0.00000    0.00000 0    0.00000    0.00000    0.00000
    121 "Bagwell 115 " 115.0000 :  1 0.996933 0.996933 -12.44579   2    1 1.1000 0.9000   400101   391231   0 0   1 0    0.00000    0.00000 0    0.00000    0.00000    0.00000
    122 "Bagwell 2 ~1" 115.0000 :  1 0.992364 0.992364 -12.18868   2    1 1.1000 0.9000   400101   391231   0 0   1 0    0.00000    0.00000 0    0.00000    0.00000    0.00000
    123 "Bells 115   " 115.0000 :  1 0.996184 0.996184 -11.32019   2    1 1.1000 0.9000   400101   391231   0 0   1 0    0.00000    0.00000 0    0.00000    0.00000    0.00000
    124 "Ben Frankl~1" 115.0000 :  1 1.017799 1.017799  -6.94662   1    1 1.1000 0.9000   400101   391231   0 0   1 0    0.00000    0.00000 0    0.00000    0.00000    0.00000
    125 "Blossom 115 " 115.0000 :  1 0.996965 0.996965 -11.57959   2    1 1.1000 0.9000   400101   391231   0 0   1 0    0.00000    0.00000 0    0.00000    0.00000    0.00000
    126 "Bogata 115  " 115.0000 :  1 0.998481 0.998481  -9.32010   2    1 1.1000 0.9000   400101   391231   0 0   1 0    0.00000    0.00000 0    0.00000    0.00000    0.00000
    127 "Bonham 115  " 115.0000 :  1 0.990343 0.990343 -11.54732   2    1 1.1000 0.9000   400101   391231   0 0   1 0    0.00000    0.00000 0    0.00000    0.00000    0.00000
    128 "Brashear 115" 115.0000 :  1 1.009102 1.009102 -10.32164   3    1 1.1000 0.9000   400101   391231   0 0   1 0    0.00000    0.00000 0    0.00000    0.00000    0.00000
    129 "Brookston ~1" 115.0000 :  1 1.004375 1.004375  -9.81160   2    1 1.1000 0.9000   400101   391231   0 0   1 0    0.00000    0.00000 0    0.00000    0.00000    0.00000
    130 "Campbell 115" 115.0000 :  1 1.001041 1.001041 -11.81233   1    1 1.1000 0.9000   400101   391231   0 0   1 0    0.00000    0.00000 0    0.00000    0.00000    0.00000
    131 "Celeste 115 " 115.0000 :  1 1.003102 1.003102 -11.93309   1    1 1.1000 0.9000   400101   391231   0 0   1 0    0.00000    0.00000 0    0.00000    0.00000    0.00000
    132 "Blue Ridge~1" 115.0000 :  1 1.016744 1.016744  -9.71979   1    1 1.1000 0.9000   400101   391231   0 0   1 0    0.00000    0.00000 0    0.00000    0.00000    0.00000
    133 "Clarksvill~1" 115.0000 :  1 0.994737 0.994737 -12.74960   2    1 1.1000 0.9000   400101   391231   0 0   1 0    0.00000    0.00000 0    0.00000    0.00000    0.00000
    134 "Commerce 115" 115.0000 :  1 1.007725 1.007725  -8.88154   1    1 1.1000 0.9000   400101   391231   0 0   1 0    0.00000    0.00000 0    0.00000    0.00000    0.00000
    135 "Como 115    " 115.0000 :  1 1.012970 1.012970 -11.57570   3    1 1.1000 0.9000   400101   391231   0 0   1 0    0.00000    0.00000 0    0.00000    0.00000    0.00000
    136 "Cooper 115  " 115.0000 :  1 1.025746 1.025746  -5.55910   1    1 1.1000 0.9000   400101   391231   0 0   1 0    0.00000    0.00000 0    0.00000    0.00000    0.00000
    137 "Cumby 115   " 115.0000 :  1 1.009544 1.009544  -9.85986   3    1 1.1000 0.9000   400101   391231   0 0   1 0    0.00000    0.00000 0    0.00000    0.00000    0.00000
    138 "Deport 115  " 115.0000 :  1 1.007678 1.007678  -8.16826   2    1 1.1000 0.9000   400101   391231   0 0   1 0    0.00000    0.00000 0    0.00000    0.00000    0.00000
    139 "Detroit 115 " 115.0000 :  1 0.995857 0.995857 -11.99622   2    1 1.1000 0.9000   400101   391231   0 0   1 0    0.00000    0.00000 0    0.00000    0.00000    0.00000
    140 "Dike 115    " 115.0000 :  1 1.005451 1.005451  -9.37673   3    1 1.1000 0.9000   400101   391231   0 0   1 0    0.00000    0.00000 0    0.00000    0.00000    0.00000
    141 "Dodd City ~1" 115.0000 :  1 0.994240 0.994240 -11.09285   2    1 1.1000 0.9000   400101   391231   0 0   1 0    0.00000    0.00000 0    0.00000    0.00000    0.00000
    142 "Ector 115   " 115.0000 :  1 0.994495 0.994495 -12.03381   2    1 1.1000 0.9000   400101   391231   0 0   1 0    0.00000    0.00000 0    0.00000    0.00000    0.00000
    143 "Emory 115   " 115.0000 :  1 0.994086 0.994086 -15.37867   3    1 1.1000 0.9000   400101   391231   0 0   1 0    0.00000    0.00000 0    0.00000    0.00000    0.00000
    144 "Farmersvil~1" 115.0000 :  1 0.992252 0.992252 -15.38429   1    1 1.1000 0.9000   400101   391231   0 0   1 0    0.00000    0.00000 0    0.00000    0.00000    0.00000
    145 "Honey Grov~1" 115.0000 :  1 1.001128 1.001128 -10.26169   2    1 1.1000 0.9000   400101   391231   0 0   1 0    0.00000    0.00000 0    0.00000    0.00000    0.00000
    146 "Ivanhoe 115 " 115.0000 :  1 0.992629 0.992629 -11.49726   2    1 1.1000 0.9000   400101   391231   0 0   1 0    0.00000    0.00000 0    0.00000    0.00000    0.00000
    147 "Klondike 115" 115.0000 :  1 1.016043 1.016043  -7.32750   1    1 1.1000 0.9000   400101   391231   0 0   1 0    0.00000    0.00000 0    0.00000    0.00000    0.00000
    148 "Ladonia 115 " 115.0000 :  1 1.009394 1.009394  -9.02469   2    1 1.1000 0.9000   400101   391231   0 0   1 0    0.00000    0.00000 0    0.00000    0.00000    0.00000
    149 "Lake Creek~1" 115.0000 :  1 1.015724 1.015724  -7.02981   1    1 1.1000 0.9000   400101   391231   0 0   1 0    0.00000    0.00000 0    0.00000    0.00000    0.00000
    150 "Leesburg 115" 115.0000 :  1 1.015570 1.015570 -13.20394   3    1 1.1000 0.9000   400101   391231   0 0   1 0    0.00000    0.00000 0    0.00000    0.00000    0.00000
    151 "Leonard 115 " 115.0000 :  1 0.991488 0.991488 -12.59290   2    1 1.1000 0.9000   400101   391231   0 0   1 0    0.00000    0.00000 0    0.00000    0.00000    0.00000
    152 "Lone Oak 115" 115.0000 :  1 0.996199 0.996199 -13.95241   1    1 1.1000 0.9000   400101   391231   0 0   1 0    0.00000    0.00000 0    0.00000    0.00000    0.00000
    153 "Melissa 115 " 115.0000 :  1 0.994358 0.994358 -12.98329   1    1 1.1000 0.9000   400101   391231   0 0   1 0    0.00000    0.00000 0    0.00000    0.00000    0.00000
    154 "Mount Plea~1" 115.0000 :  1 0.983920 0.983920 -11.24006   3    1 1.1000 0.9000   400101   391231   0 0   1 0    0.00000    0.00000 0    0.00000    0.00000    0.00000
    155 "Mount Vern~1" 115.0000 :  1 0.994542 0.994542 -10.64201   3    1 1.1000 0.9000   400101   391231   0 0   1 0    0.00000    0.00000 0    0.00000    0.00000    0.00000
    156 "Howe 115    " 115.0000 :  1 0.993738 0.993738 -12.81936   2    1 1.1000 0.9000   400101   391231   0 0   1 0    0.00000    0.00000 0    0.00000    0.00000    0.00000
    157 "Paris 115   " 115.0000 :  1 0.999197 0.999197 -11.01308   2    1 1.1000 0.9000   400101   391231   0 0   1 0    0.00000    0.00000 0    0.00000    0.00000    0.00000
    158 "Paris 2 115 " 115.0000 :  1 1.000500 1.000500 -10.82496   2    1 1.1000 0.9000   400101   391231   0 0   1 0    0.00000    0.00000 0    0.00000    0.00000    0.00000
    159 "Pattonvill~1" 115.0000 :  1 1.008761 1.008761  -8.12429   2    1 1.1000 0.9000   400101   391231   0 0   1 0    0.00000    0.00000 0    0.00000    0.00000    0.00000
    160 "Pecan Gap ~1" 115.0000 :  1 1.015448 1.015448  -7.66829   1    1 1.1000 0.9000   400101   391231   0 0   1 0    0.00000    0.00000 0    0.00000    0.00000    0.00000
    161 "Petty 115   " 115.0000 :  1 1.006561 1.006561  -9.19973   2    1 1.1000 0.9000   400101   391231   0 0   1 0    0.00000    0.00000 0    0.00000    0.00000    0.00000
    162 "Pickton 115 " 115.0000 :  1 1.013276 1.013276 -12.03811   3    1 1.1000 0.9000   400101   391231   0 0   1 0    0.00000    0.00000 0    0.00000    0.00000    0.00000
    163 "Point 115   " 115.0000 :  1 0.999345 0.999345 -14.86095   3    1 1.1000 0.9000   400101   391231   0 0   1 0    0.00000    0.00000 0    0.00000    0.00000    0.00000
    164 "Powderly 115" 115.0000 :  1 1.000760 1.000760 -11.01782   2    1 1.1000 0.9000   400101   391231   0 0   1 0    0.00000    0.00000 0    0.00000    0.00000    0.00000
    165 "Quinlan 115 " 115.0000 :  1 1.003606 1.003606 -16.24839   1    1 1.1000 0.9000   400101   391231   0 0   1 0    0.00000    0.00000 0    0.00000    0.00000    0.00000
    166 "Quinlan 2 ~1" 115.0000 :  1 0.992860 0.992860 -12.33278   2    1 1.1000 0.9000   400101   391231   0 0   1 0    0.00000    0.00000 0    0.00000    0.00000    0.00000
    167 "Ravenna 115 " 115.0000 :  1 0.993968 0.993968 -11.91785   2    1 1.1000 0.9000   400101   391231   0 0   1 0    0.00000    0.00000 0    0.00000    0.00000    0.00000
    168 "Roxton 115  " 115.0000 :  1 1.013327 1.013327  -7.83966   2    1 1.1000 0.9000   400101   391231   0 0   1 0    0.00000    0.00000 0    0.00000    0.00000    0.00000
    169 "Saltillo 115" 115.0000 :  1 1.001324 1.001324 -10.08840   3    1 1.1000 0.9000   400101   391231   0 0   1 0    0.00000    0.00000 0    0.00000    0.00000    0.00000
    170 "Savoy 115   " 115.0000 :  1 0.995113 0.995113 -11.72918   2    1 1.1000 0.9000   400101   391231   0 0   1 0    0.00000    0.00000 0    0.00000    0.00000    0.00000
    171 "Scroggins ~1" 115.0000 :  1 1.013261 1.013261 -13.27325   3    1 1.1000 0.9000   400101   391231   0 0   1 0    0.00000    0.00000 0    0.00000    0.00000    0.00000
    172 "Sulphur Bl~1" 115.0000 :  1 1.009954 1.009954  -8.32123   3    1 1.1000 0.9000   400101   391231   0 0   1 0    0.00000    0.00000 0    0.00000    0.00000    0.00000
    173 "Sulphur Sp~1" 115.0000 :  1 1.000514 1.000514 -10.17908   3    1 1.1000 0.9000   400101   391231   0 0   1 0    0.00000    0.00000 0    0.00000    0.00000    0.00000
    174 "Sumner 115  " 115.0000 :  1 0.998087 0.998087 -11.62757   2    1 1.1000 0.9000   400101   391231   0 0   1 0    0.00000    0.00000 0    0.00000    0.00000    0.00000
    175 "Talco 115   " 115.0000 :  1 0.993063 0.993063 -10.03112   3    1 1.1000 0.9000   400101   391231   0 0   1 0    0.00000    0.00000 0    0.00000    0.00000    0.00000
    176 "Telephone ~1" 115.0000 :  1 0.993888 0.993888 -11.43264   2    1 1.1000 0.9000   400101   391231   0 0   1 0    0.00000    0.00000 0    0.00000    0.00000    0.00000
    177 "Telephone ~2" 115.0000 :  1 0.995983 0.995983 -12.25061   2    1 1.1000 0.9000   400101   391231   0 0   1 0    0.00000    0.00000 0    0.00000    0.00000    0.00000
    178 "Trenton 115 " 115.0000 :  1 0.992997 0.992997 -13.63488   2    1 1.1000 0.9000   400101   391231   0 0   1 0    0.00000    0.00000 0    0.00000    0.00000    0.00000
    179 "Whitewrigh~1" 115.0000 :  1 0.993844 0.993844 -12.95967   2    1 1.1000 0.9000   400101   391231   0 0   1 0    0.00000    0.00000 0    0.00000    0.00000    0.00000
    180 "Windom 115  " 115.0000 :  1 0.997453 0.997453 -10.69801   2    1 1.1000 0.9000   400101   391231   0 0   1 0    0.00000    0.00000 0    0.00000    0.00000    0.00000
    181 "Windom 2 115" 115.0000 :  1 0.990881 0.990881 -10.90888   3    1 1.1000 0.9000   400101   391231   0 0   1 0    0.00000    0.00000 0    0.00000    0.00000    0.00000
    182 "Van Alstyn~1" 115.0000 :  1 0.991491 0.991491 -13.08985   2    1 1.1000 0.9000   400101   391231   0 0   1 0    0.00000    0.00000 0    0.00000    0.00000    0.00000
    183 "Wolfe City~1" 115.0000 :  1 1.005326 1.005326 -10.48624   1    1 1.1000 0.9000   400101   391231   0 0   1 0    0.00000    0.00000 0    0.00000    0.00000    0.00000
    184 "Yantis 115  " 115.0000 :  1 1.011104 1.011104 -11.44461   3    1 1.1000 0.9000   400101   391231   0 0   1 0    0.00000    0.00000 0    0.00000    0.00000    0.00000
    185 "Annona 115  " 115.0000 :  1 0.994628 0.994628 -12.80412   2    1 1.1000 0.9000   400101   391231   0 0   1 0    0.00000    0.00000 0    0.00000    0.00000    0.00000
    186 "Avery 115   " 115.0000 :  1 0.994716 0.994716 -12.79521   2    1 1.1000 0.9000   400101   391231   0 0   1 0    0.00000    0.00000 0    0.00000    0.00000    0.00000
    187 "Cookville ~1" 115.0000 :  1 1.001561 1.001561 -13.31783   3    1 1.1000 0.9000   400101   391231   0 0   1 0    0.00000    0.00000 0    0.00000    0.00000    0.00000
    188 "Omaha 115   " 115.0000 :  1 1.003065 1.003065 -13.37251   3    1 1.1000 0.9000   400101   391231   0 0   1 0    0.00000    0.00000 0    0.00000    0.00000    0.00000
    189 "Henderson ~1" 115.0000 :  1 1.013474 1.013474 -13.91955   3    1 1.1000 0.9000   400101   391231   0 0   1 0    0.00000    0.00000 0    0.00000    0.00000    0.00000
    190 "Henderson ~2" 115.0000 :  1 1.016049 1.016049 -13.20626   3    1 1.1000 0.9000   400101   391231   0 0   1 0    0.00000    0.00000 0    0.00000    0.00000    0.00000
    191 "Laneville ~1" 115.0000 :  1 1.020458 1.020458 -12.77877   3    1 1.1000 0.9000   400101   391231   0 0   1 0    0.00000    0.00000 0    0.00000    0.00000    0.00000
    192 "Long Branc~1" 115.0000 :  1 1.025038 1.025038 -12.84260   3    1 1.1000 0.9000   400101   391231   0 0   1 0    0.00000    0.00000 0    0.00000    0.00000    0.00000
    193 "Mount Ente~1" 115.0000 :  1 1.031956 1.031956 -11.57451   3    1 1.1000 0.9000   400101   391231   0 0   1 0    0.00000    0.00000 0    0.00000    0.00000    0.00000
    194 "Overton 115 " 115.0000 :  1 1.009156 1.009156 -14.46418   3    1 1.1000 0.9000   400101   391231   0 0   1 0    0.00000    0.00000 0    0.00000    0.00000    0.00000
    195 "Pittsburg ~1" 115.0000 :  1 1.021680 1.021680 -13.75825   3    1 1.1000 0.9000   400101   391231   0 0   1 0    0.00000    0.00000 0    0.00000    0.00000    0.00000
    196 "Tatum 115   " 115.0000 :  1 1.015323 1.015323 -13.80860   3    1 1.1000 0.9000   400101   391231   0 0   1 0    0.00000    0.00000 0    0.00000    0.00000    0.00000
    197 "Tyler 115   " 115.0000 :  1 1.013040 1.013040 -13.85736   3    1 1.1000 0.9000   400101   391231   0 0   1 0    0.00000    0.00000 0    0.00000    0.00000    0.00000
    198 "Tyler 2 115 " 115.0000 :  1 1.012787 1.012787 -13.95630   3    1 1.1000 0.9000   400101   391231   0 0   1 0    0.00000    0.00000 0    0.00000    0.00000    0.00000
    199 "Tyler 3 115 " 115.0000 :  1 1.020541 1.020541 -13.30175   3    1 1.1000 0.9000   400101   391231   0 0   1 0    0.00000    0.00000 0    0.00000    0.00000    0.00000
    200 "Tyler 4 115 " 115.0000 :  1 1.004584 1.004584 -14.87486   3    1 1.1000 0.9000   400101   391231   0 0   1 0    0.00000    0.00000 0    0.00000    0.00000    0.00000
...
branch data  [ 2481]                                          ck  se  ------------long_id_------------    st resist   react   charge   rate1  rate2  rate3  rate4 aloss  lngth 
      2 "Dallas 115  " 115.00       4 "Carrollton~2" 115.00  "1 "  1 "                                " :  1  0.002172  0.011989  0.114585  207.4 9999.0 9999.0    0.0 0.000    0.0 /
   1    1  0.000000  0.000000  1.000000   400101   391231   0 1  0    0.0    0.0    0.0    0.0   1 1.000   0 0.000   0 0.000   0 0.000   0 0.000   0 0.000   0 0.000   0 0.000  0 0 
      2 "Dallas 115  " 115.00      39 "Plano 4 115 " 115.00  "1 "  1 "                                " :  1  0.001466  0.009962  0.193329  383.8 9999.0 9999.0    0.0 0.000    0.0 /
   1    1  0.000000  0.000000  1.000000   400101   391231   0 1  0    0.0    0.0    0.0    0.0   1 1.000   0 0.000   0 0.000   0 0.000   0 0.000   0 0.000   0 0.000   0 0.000  0 0 
      2 "Dallas 115  " 115.00     112 "Dallas 15 ~1" 115.00  "1 "  1 "                                " :  1  0.000972  0.006401  0.128178  310.1 9999.0 9999.0    0.0 0.000    0.0 /
   1    1  0.000000  0.000000  1.000000   400101   391231   0 1  0    0.0    0.0    0.0    0.0   1 1.000   0 0.000   0 0.000   0 0.000   0 0.000   0 0.000   0 0.000   0 0.000  0 0 
      2 "Dallas 115  " 115.00     115 "Dallas 18 ~1" 115.00  "1 "  1 "                                " :  1  0.001015  0.006413  0.008920  207.6 9999.0 9999.0    0.0 0.000    0.0 /
   1    1  0.000000  0.000000  1.000000   400101   391231   0 1  0    0.0    0.0    0.0    0.0   1 1.000   0 0.000   0 0.000   0 0.000   0 0.000   0 0.000   0 0.000   0 0.000  0 0 
      3 "Allen 115   " 115.00      13 "Plano 115   " 115.00  "1 "  1 "                                " :  1  0.001493  0.015696  0.196907  367.9 9999.0 9999.0    0.0 0.000    0.0 /
   1    1  0.000000  0.000000  1.000000   400101   391231   0 1  0    0.0    0.0    0.0    0.0   1 1.000   0 0.000   0 0.000   0 0.000   0 0.000   0 0.000   0 0.000   0 0.000  0 0 
      3 "Allen 115   " 115.00      16 "Rockwall 115" 115.00  "1 "  1 "                                " :  1  0.049688  0.109312  0.014313   97.6 9999.0 9999.0    0.0 0.000    0.0 /
   1    1  0.000000  0.000000  1.000000   400101   391231   0 1  0    0.0    0.0    0.0    0.0   1 1.000   0 0.000   0 0.000   0 0.000   0 0.000   0 0.000   0 0.000   0 0.000  0 0 
      4 "Carrollton~2" 115.00       5 "Carrollton~3" 115.00  "1 "  1 "                                " :  1  0.000957  0.009017  0.008418  235.6 9999.0 9999.0    0.0 0.000    0.0 /
   1    1  0.000000  0.000000  1.000000   400101   391231   0 1  0    0.0    0.0    0.0    0.0   1 1.000   0 0.000   0 0.000   0 0.000   0 0.000   0 0.000   0 0.000   0 0.000  0 0 
      4 "Carrollton~2" 115.00     109 "Dallas 12 ~1" 115.00  "1 "  1 "                                " :  1  0.001967  0.010858  0.103778  207.4 9999.0 9999.0    0.0 0.000    0.0 /
   1    1  0.000000  0.000000  1.000000   400101   391231   0 1  0    0.0    0.0    0.0    0.0   1 1.000   0 0.000   0 0.000   0 0.000   0 0.000   0 0.000   0 0.000   0 0.000  0 0 
      4 "Carrollton~2" 115.00     109 "Dallas 12 ~1" 115.00  "2 "  1 "                                " :  1  0.001967  0.010858  0.103778  207.4 9999.0 9999.0    0.0 0.000    0.0 /
   1    1  0.000000  0.000000  1.000000   400101   391231   0 1  0    0.0    0.0    0.0    0.0   1 1.000   0 0.000   0 0.000   0 0.000   0 0.000   0 0.000   0 0.000   0 0.000  0 0 
      5 "Carrollton~3" 115.00     115 "Dallas 18 ~1" 115.00  "1 "  1 "                                " :  1  0.001925  0.010623  0.101532  207.4 9999.0 9999.0    0.0 0.000    0.0 /
   1    1  0.000000  0.000000  1.000000   400101   391231   0 1  0    0.0    0.0    0.0    0.0   1 1.000   0 0.000   0 0.000   0 0.000   0 0.000   0 0.000   0 0.000   0 0.000  0 0 
      5 "Carrollton~3" 115.00     115 "Dallas 18 ~1" 115.00  "2 "  1 "                                " :  1  0.001925  0.010623  0.101532  207.4 9999.0 9999.0    0.0 0.000    0.0 /
   1    1  0.000000  0.000000  1.000000   400101   391231   0 1  0    0.0    0.0    0.0    0.0   1 1.000   0 0.000   0 0.000   0 0.000   0 0.000   0 0.000   0 0.000   0 0.000  0 0 
      5 "Carrollton~3" 115.00    1427 "Lewisville~3" 115.00  "1 "  1 "                                " :  1  0.004283  0.029837  0.004878  221.1 9999.0 9999.0    0.0 0.000    0.0 /
   1    1  0.000000  0.000000  1.000000   400101   391231   0 1  0    0.0    0.0    0.0    0.0   1 1.000   0 0.000   0 0.000   0 0.000   0 0.000   0 0.000   0 0.000   0 0.000  0 0 
      6 "Celina 115  " 115.00      31 "Gunter 115  " 115.00  "1 "  1 "                                " :  1  0.020054  0.041232  0.006196   97.6 9999.0 9999.0    0.0 0.000    0.0 /
   2    1  0.000000  0.000000  1.000000   400101   391231   0 1  0    0.0    0.0    0.0    0.0   1 1.000   0 0.000   0 0.000   0 0.000   0 0.000   0 0.000   0 0.000   0 0.000  0 0 
      6 "Celina 115  " 115.00     153 "Melissa 115 " 115.00  "1 "  1 "                                " :  1  0.015307  0.057153  0.009699  149.4 9999.0 9999.0    0.0 0.000    0.0 /
   1    1  0.000000  0.000000  1.000000   400101   391231   0 1  0    0.0    0.0    0.0    0.0   1 1.000   0 0.000   0 0.000   0 0.000   0 0.000   0 0.000   0 0.000   0 0.000  0 0 
      7 "The Colony~1" 115.00      14 "Plano 2 115 " 115.00  "1 "  1 "                                " :  1  0.001304  0.012276  0.011460  235.6 9999.0 9999.0    0.0 0.000    0.0 /
   1    1  0.000000  0.000000  1.000000   400101   391231   0 1  0    0.0    0.0    0.0    0.0   1 1.000   0 0.000   0 0.000   0 0.000   0 0.000   0 0.000   0 0.000   0 0.000  0 0 
      7 "The Colony~1" 115.00      17 "Frisco 115  " 115.00  "1 "  1 "                                " :  1  0.002490  0.009116  0.131363  184.6 9999.0 9999.0    0.0 0.000    0.0 /
   1    1  0.000000  0.000000  1.000000   400101   391231   0 1  0    0.0    0.0    0.0    0.0   1 1.000   0 0.000   0 0.000   0 0.000   0 0.000   0 0.000   0 0.000   0 0.000  0 0 
      7 "The Colony~1" 115.00     115 "Dallas 18 ~1" 115.00  "1 "  1 "                                " :  1  0.001705  0.016060  0.014991  235.6 9999.0 9999.0    0.0 0.000    0.0 /
   1    1  0.000000  0.000000  1.000000   400101   391231   0 1  0    0.0    0.0    0.0    0.0   1 1.000   0 0.000   0 0.000   0 0.000   0 0.000   0 0.000   0 0.000   0 0.000  0 0 
      7 "The Colony~1" 115.00     115 "Dallas 18 ~1" 115.00  "2 "  1 "                                " :  1  0.001705  0.016060  0.014991  235.6 9999.0 9999.0    0.0 0.000    0.0 /
   1    1  0.000000  0.000000  1.000000   400101   391231   0 1  0    0.0    0.0    0.0    0.0   1 1.000   0 0.000   0 0.000   0 0.000   0 0.000   0 0.000   0 0.000   0 0.000  0 0 
      8 "Allen 2 115 " 115.00      13 "Plano 115   " 115.00  "1 "  1 "                                " :  1  0.002197  0.008602  0.062766  143.0 9999.0 9999.0    0.0 0.000    0.0 /
   1    1  0.000000  0.000000  1.000000   400101   391231   0 1  0    0.0    0.0    0.0    0.0   1 1.000   0 0.000   0 0.000   0 0.000   0 0.000   0 0.000   0 0.000   0 0.000  0 0 
      8 "Allen 2 115 " 115.00      35 "Mckinney 115" 115.00  "1 "  1 "                                " :  1  0.010308  0.041345  0.006063  149.4 9999.0 9999.0    0.0 0.000    0.0 /
   1    1  0.000000  0.000000  1.000000   400101   391231   0 1  0    0.0    0.0    0.0    0.0   1 1.000   0 0.000   0 0.000   0 0.000   0 0.000   0 0.000   0 0.000   0 0.000  0 0 
      8 "Allen 2 115 " 115.00     118 "Princeton ~1" 115.00  "1 "  1 "                                " :  1  0.016735  0.065889  0.010034  149.4 9999.0 9999.0    0.0 0.000    0.0 /
   1    1  0.000000  0.000000  1.000000   400101   391231   0 1  0    0.0    0.0    0.0    0.0   1 1.000   0 0.000   0 0.000   0 0.000   0 0.000   0 0.000   0 0.000   0 0.000  0 0 
      9 "Coppell 115 " 115.00      30 "Lewisville~1" 115.00  "1 "  1 "                                " :  1  0.002140  0.011809  0.112862  207.4 9999.0 9999.0    0.0 0.000    0.0 /
   1    1  0.000000  0.000000  1.000000   400101   391231   0 1  0    0.0    0.0    0.0    0.0   1 1.000   0 0.000   0 0.000   0 0.000   0 0.000   0 0.000   0 0.000   0 0.000  0 0 
      9 "Coppell 115 " 115.00      30 "Lewisville~1" 115.00  "2 "  1 "                                " :  1  0.002140  0.011809  0.112862  207.4 9999.0 9999.0    0.0 0.000    0.0 /
   1    1  0.000000  0.000000  1.000000   400101   391231   0 1  0    0.0    0.0    0.0    0.0   1 1.000   0 0.000   0 0.000   0 0.000   0 0.000   0 0.000   0 0.000   0 0.000  0 0 
      9 "Coppell 115 " 115.00     109 "Dallas 12 ~1" 115.00  "1 "  1 "                                " :  1  0.001907  0.017956  0.016761  235.6 9999.0 9999.0    0.0 0.000    0.0 /
   1    1  0.000000  0.000000  1.000000   400101   391231   0 1  0    0.0    0.0    0.0    0.0   1 1.000   0 0.000   0 0.000   0 0.000   0 0.000   0 0.000   0 0.000   0 0.000  0 0 
     10 "Denison 115 " 115.00      40 "Pottsboro ~1" 115.00  "1 "  1 "                                " :  1  0.009799  0.036588  0.006209  149.4 9999.0 9999.0    0.0 0.000    0.0 /
   2    1  0.000000  0.000000  1.000000   400101   391231   0 1  0    0.0    0.0    0.0    0.0   1 1.000   0 0.000   0 0.000   0 0.000   0 0.000   0 0.000   0 0.000   0 0.000  0 0 
     10 "Denison 115 " 115.00      46 "Sherman 115 " 115.00  "1 "  1 "                                " :  1  0.008735  0.060852  0.009948  221.1 9999.0 9999.0    0.0 0.000    0.0 /
   2    1  0.000000  0.000000  1.000000   400101   391231   0 1  0    0.0    0.0    0.0    0.0   1 1.000   0 0.000   0 0.000   0 0.000   0 0.000   0 0.000   0 0.000   0 0.000  0 0 
     10 "Denison 115 " 115.00    1457 "Denison 3 ~1" 115.00  "1 "  1 "                                " :  1  0.005145  0.019211  0.003260  149.4 9999.0 9999.0    0.0 0.000    0.0 /
   2    1  0.000000  0.000000  1.000000   400101   391231   0 1  0    0.0    0.0    0.0    0.0   1 1.000   0 0.000   0 0.000   0 0.000   0 0.000   0 0.000   0 0.000   0 0.000  0 0 
     10 "Denison 115 " 115.00    1457 "Denison 3 ~1" 115.00  "2 "  1 "                                " :  1  0.005145  0.019211  0.003260  149.4 9999.0 9999.0    0.0 0.000    0.0 /
   2    1  0.000000  0.000000  1.000000   400101   391231   0 1  0    0.0    0.0    0.0    0.0   1 1.000   0 0.000   0 0.000   0 0.000   0 0.000   0 0.000   0 0.000   0 0.000  0 0 
     11 "Denison 2 ~1" 115.00     123 "Bells 115   " 115.00  "1 "  1 "                                " :  1  0.010152  0.040720  0.005971  149.4 9999.0 9999.0    0.0 0.000    0.0 /
   2    1  0.000000  0.000000  1.000000   400101   391231   0 1  0    0.0    0.0    0.0    0.0   1 1.000   0 0.000   0 0.000   0 0.000   0 0.000   0 0.000   0 0.000   0 0.000  0 0 
     11 "Denison 2 ~1" 115.00    1457 "Denison 3 ~1" 115.00  "1 "  1 "                                " :  1  0.011346  0.044671  0.006803  149.4 9999.0 9999.0    0.0 0.000    0.0 /
   2    1  0.000000  0.000000  1.000000   400101   391231   0 1  0    0.0    0.0    0.0    0.0   1 1.000   0 0.000   0 0.000   0 0.000   0 0.000   0 0.000   0 0.000   0 0.000  0 0 
     12 "Flower Mou~1" 115.00     299 "Grapevine ~1" 115.00  "1 "  1 "                                " :  1  0.005972  0.041601  0.006801  221.1 9999.0 9999.0    0.0 0.000    0.0 /
   1    1  0.000000  0.000000  1.000000   400101   391231   0 1  0    0.0    0.0    0.0    0.0   1 1.000   0 0.000   0 0.000   0 0.000   0 0.000   0 0.000   0 0.000   0 0.000  0 0 
     12 "Flower Mou~1" 115.00     322 "Southlake ~1" 115.00  "1 "  1 "                                " :  1  0.007192  0.028317  0.004312  149.4 9999.0 9999.0    0.0 0.000    0.0 /
   1    1  0.000000  0.000000  1.000000   400101   391231   0 1  0    0.0    0.0    0.0    0.0   1 1.000   0 0.000   0 0.000   0 0.000   0 0.000   0 0.000   0 0.000   0 0.000  0 0 
     12 "Flower Mou~1" 115.00     347 "Denton 4 115" 115.00  "1 "  1 "                                " :  1  0.005929  0.040502  0.006891  221.1 9999.0 9999.0    0.0 0.000    0.0 /
   1    1  0.000000  0.000000  1.000000   400101   391231   0 1  0    0.0    0.0    0.0    0.0   1 1.000   0 0.000   0 0.000   0 0.000   0 0.000   0 0.000   0 0.000   0 0.000  0 0 
     13 "Plano 115   " 115.00      14 "Plano 2 115 " 115.00  "1 "  1 "                                " :  1  0.001776  0.009802  0.093685  207.4 9999.0 9999.0    0.0 0.000    0.0 /
   1    1  0.000000  0.000000  1.000000   400101   391231   0 1  0    0.0    0.0    0.0    0.0   1 1.000   0 0.000   0 0.000   0 0.000   0 0.000   0 0.000   0 0.000   0 0.000  0 0 
     13 "Plano 115   " 115.00      38 "Plano 3 115 " 115.00  "1 "  1 "                                " :  1  0.001867  0.010302  0.098458  207.4 9999.0 9999.0    0.0 0.000    0.0 /
   1    1  0.000000  0.000000  1.000000   400101   391231   0 1  0    0.0    0.0    0.0    0.0   1 1.000   0 0.000   0 0.000   0 0.000   0 0.000   0 0.000   0 0.000   0 0.000  0 0 
     13 "Plano 115   " 115.00      39 "Plano 4 115 " 115.00  "1 "  1 "                                " :  1  0.000883  0.008313  0.007760  235.6 9999.0 9999.0    0.0 0.000    0.0 /
   1    1  0.000000  0.000000  1.000000   400101   391231   0 1  0    0.0    0.0    0.0    0.0   1 1.000   0 0.000   0 0.000   0 0.000   0 0.000   0 0.000   0 0.000   0 0.000  0 0 
     13 "Plano 115   " 115.00      39 "Plano 4 115 " 115.00  "2 "  1 "                                " :  1  0.000883  0.008313  0.007760  235.6 9999.0 9999.0    0.0 0.000    0.0 /
   1    1  0.000000  0.000000  1.000000   400101   391231   0 1  0    0.0    0.0    0.0    0.0   1 1.000   0 0.000   0 0.000   0 0.000   0 0.000   0 0.000   0 0.000   0 0.000  0 0 
     14 "Plano 2 115 " 115.00      17 "Frisco 115  " 115.00  "1 "  1 "                                " :  1  0.001700  0.016008  0.014943  235.6 9999.0 9999.0    0.0 0.000    0.0 /
   1    1  0.000000  0.000000  1.000000   400101   391231   0 1  0    0.0    0.0    0.0    0.0   1 1.000   0 0.000   0 0.000   0 0.000   0 0.000   0 0.000   0 0.000   0 0.000  0 0 
     14 "Plano 2 115 " 115.00      43 "Richardson~1" 115.00  "1 "  1 "                                " :  1  0.001523  0.010352  0.200900  383.8 9999.0 9999.0    0.0 0.000    0.0 /
   1    1  0.000000  0.000000  1.000000   400101   391231   0 1  0    0.0    0.0    0.0    0.0   1 1.000   0 0.000   0 0.000   0 0.000   0 0.000   0 0.000   0 0.000   0 0.000  0 0 
     15 "Flower Mou~2" 115.00      30 "Lewisville~1" 115.00  "1 "  1 "                                " :  1  0.005142  0.019200  0.003258  149.4 9999.0 9999.0    0.0 0.000    0.0 /
   1    1  0.000000  0.000000  1.000000   400101   391231   0 1  0    0.0    0.0    0.0    0.0   1 1.000   0 0.000   0 0.000   0 0.000   0 0.000   0 0.000   0 0.000   0 0.000  0 0 
     15 "Flower Mou~2" 115.00      30 "Lewisville~1" 115.00  "2 "  1 "                                " :  1  0.005142  0.019200  0.003258  149.4 9999.0 9999.0    0.0 0.000    0.0 /
   1    1  0.000000  0.000000  1.000000   400101   391231   0 1  0    0.0    0.0    0.0    0.0   1 1.000   0 0.000   0 0.000   0 0.000   0 0.000   0 0.000   0 0.000   0 0.000  0 0 
     15 "Flower Mou~2" 115.00      41 "Lewisville~2" 115.00  "1 "  1 "                                " :  1  0.004513  0.017768  0.002706  149.4 9999.0 9999.0    0.0 0.000    0.0 /
   1    1  0.000000  0.000000  1.000000   400101   391231   0 1  0    0.0    0.0    0.0    0.0   1 1.000   0 0.000   0 0.000   0 0.000   0 0.000   0 0.000   0 0.000   0 0.000  0 0 
     15 "Flower Mou~2" 115.00     340 "Fort Wort~12" 115.00  "1 "  1 "                                " :  1  0.019378  0.077724  0.011397  149.4 9999.0 9999.0    0.0 0.000    0.0 /
   1    1  0.000000  0.000000  1.000000   400101   391231   0 1  0    0.0    0.0    0.0    0.0   1 1.000   0 0.000   0 0.000   0 0.000   0 0.000   0 0.000   0 0.000   0 0.000  0 0 
     15 "Flower Mou~2" 115.00     340 "Fort Wort~12" 115.00  "2 "  1 "                                " :  1  0.019378  0.077724  0.011397  149.4 9999.0 9999.0    0.0 0.000    0.0 /
   1    1  0.000000  0.000000  1.000000   400101   391231   0 1  0    0.0    0.0    0.0    0.0   1 1.000   0 0.000   0 0.000   0 0.000   0 0.000   0 0.000   0 0.000   0 0.000  0 0 
     16 "Rockwall 115" 115.00      44 "Rockwall 2~1" 115.00  "1 "  1 "                                " :  1  0.008651  0.032300  0.005481  149.4 9999.0 9999.0    0.0 0.000    0.0 /
   1    1  0.000000  0.000000  1.000000   400101   391231   0 1  0    0.0    0.0    0.0    0.0   1 1.000   0 0.000   0 0.000   0 0.000   0 0.000   0 0.000   0 0.000   0 0.000  0 0 
     17 "Frisco 115  " 115.00      34 "Little Elm~1" 115.00  "1 "  1 "                                " :  1  0.007830  0.031406  0.004605  149.4 9999.0 9999.0    0.0 0.000    0.0 /
   1    1  0.000000  0.000000  1.000000   400101   391231   0 1  0    0.0    0.0    0.0    0.0   1 1.000   0 0.000   0 0.000   0 0.000   0 0.000   0 0.000   0 0.000   0 0.000  0 0 
     17 "Frisco 115  " 115.00      36 "Mckinney 2~1" 115.00  "1 "  1 "                                " :  1  0.006908  0.048127  0.007867  221.1 9999.0 9999.0    0.0 0.000    0.0 /
   1    1  0.000000  0.000000  1.000000   400101   391231   0 1  0    0.0    0.0    0.0    0.0   1 1.000   0 0.000   0 0.000   0 0.000   0 0.000   0 0.000   0 0.000   0 0.000  0 0 
     17 "Frisco 115  " 115.00      42 "Prosper 115 " 115.00  "1 "  1 "                                " :  1  0.005254  0.036604  0.005984  221.1 9999.0 9999.0    0.0 0.000    0.0 /
   1    1  0.000000  0.000000  1.000000   400101   391231   0 1  0    0.0    0.0    0.0    0.0   1 1.000   0 0.000   0 0.000   0 0.000   0 0.000   0 0.000   0 0.000   0 0.000  0 0 
     18 "Frisco 2 115" 115.00      31 "Gunter 115  " 115.00  "1 "  1 "                                " :  1  0.051894  0.114165  0.014949   97.6 9999.0 9999.0    0.0 0.000    0.0 /
   2    1  0.000000  0.000000  1.000000   400101   391231   0 1  0    0.0    0.0    0.0    0.0   1 1.000   0 0.000   0 0.000   0 0.000   0 0.000   0 0.000   0 0.000   0 0.000  0 0 
     18 "Frisco 2 115" 115.00      42 "Prosper 115 " 115.00  "1 "  1 "                                " :  1  0.007435  0.027760  0.004711  149.4 9999.0 9999.0    0.0 0.000    0.0 /
   1    1  0.000000  0.000000  1.000000   400101   391231   0 1  0    0.0    0.0    0.0    0.0   1 1.000   0 0.000   0 0.000   0 0.000   0 0.000   0 0.000   0 0.000   0 0.000  0 0 
     18 "Frisco 2 115" 115.00      42 "Prosper 115 " 115.00  "2 "  1 "                                " :  1  0.007435  0.027760  0.004711  149.4 9999.0 9999.0    0.0 0.000    0.0 /
   1    1  0.000000  0.000000  1.000000   400101   391231   0 1  0    0.0    0.0    0.0    0.0   1 1.000   0 0.000   0 0.000   0 0.000   0 0.000   0 0.000   0 0.000   0 0.000  0 0 
     19 "Irving 115  " 115.00      20 "Irving 2 115" 115.00  "1 "  1 "                                " :  1  0.008407  0.018172  0.002466   97.6 9999.0 9999.0    0.0 0.000    0.0 /
   1    1  0.000000  0.000000  1.000000   400101   391231   0 1  0    0.0    0.0    0.0    0.0   1 1.000   0 0.000   0 0.000   0 0.000   0 0.000   0 0.000   0 0.000   0 0.000  0 0 
     19 "Irving 115  " 115.00     340 "Fort Wort~12" 115.00  "1 "  1 "                                " :  1  0.006215  0.023204  0.003938  149.4 9999.0 9999.0    0.0 0.000    0.0 /
   1    1  0.000000  0.000000  1.000000   400101   391231   0 1  0    0.0    0.0    0.0    0.0   1 1.000   0 0.000   0 0.000   0 0.000   0 0.000   0 0.000   0 0.000   0 0.000  0 0 
     19 "Irving 115  " 115.00     340 "Fort Wort~12" 115.00  "2 "  1 "                                " :  1  0.006215  0.023204  0.003938  149.4 9999.0 9999.0    0.0 0.000    0.0 /
   1    1  0.000000  0.000000  1.000000   400101   391231   0 1  0    0.0    0.0    0.0    0.0   1 1.000   0 0.000   0 0.000   0 0.000   0 0.000   0 0.000   0 0.000   0 0.000  0 0 
     20 "Irving 2 115" 115.00      32 "Irving 3 115" 115.00  "1 "  1 "                                " :  1  0.002645  0.010522  0.075574  152.2 9999.0 9999.0    0.0 0.000    0.0 /
   1    1  0.000000  0.000000  1.000000   400101   391231   0 1  0    0.0    0.0    0.0    0.0   1 1.000   0 0.000   0 0.000   0 0.000   0 0.000   0 0.000   0 0.000   0 0.000  0 0 
     21 "Garland 115 " 115.00      22 "Garland 2 ~1" 115.00  "1 "  1 "                                " :  1  0.001347  0.004931  0.071049  184.6 9999.0 9999.0    0.0 0.000    0.0 /
   1    1  0.000000  0.000000  1.000000   400101   391231   0 1  0    0.0    0.0    0.0    0.0   1 1.000   0 0.000   0 0.000   0 0.000   0 0.000   0 0.000   0 0.000   0 0.000  0 0 
     21 "Garland 115 " 115.00      24 "Garland 4 ~1" 115.00  "1 "  1 "                                " :  1  0.004954  0.018499  0.003139  149.4 9999.0 9999.0    0.0 0.000    0.0 /
   1    1  0.000000  0.000000  1.000000   400101   391231   0 1  0    0.0    0.0    0.0    0.0   1 1.000   0 0.000   0 0.000   0 0.000   0 0.000   0 0.000   0 0.000   0 0.000  0 0 
     21 "Garland 115 " 115.00      24 "Garland 4 ~1" 115.00  "2 "  1 "                                " :  1  0.004954  0.018499  0.003139  149.4 9999.0 9999.0    0.0 0.000    0.0 /
   1    1  0.000000  0.000000  1.000000   400101   391231   0 1  0    0.0    0.0    0.0    0.0   1 1.000   0 0.000   0 0.000   0 0.000   0 0.000   0 0.000   0 0.000   0 0.000  0 0 
     21 "Garland 115 " 115.00      25 "Rowlett 115 " 115.00  "1 "  1 "                                " :  1  0.004625  0.018552  0.002720  149.4 9999.0 9999.0    0.0 0.000    0.0 /
   1    1  0.000000  0.000000  1.000000   400101   391231   0 1  0    0.0    0.0    0.0    0.0   1 1.000   0 0.000   0 0.000   0 0.000   0 0.000   0 0.000   0 0.000   0 0.000  0 0 
     21 "Garland 115 " 115.00      48 "Plano 5 115 " 115.00  "1 "  1 "                                " :  1  0.008621  0.034579  0.005071  149.4 9999.0 9999.0    0.0 0.000    0.0 /
   1    1  0.000000  0.000000  1.000000   400101   391231   0 1  0    0.0    0.0    0.0    0.0   1 1.000   0 0.000   0 0.000   0 0.000   0 0.000   0 0.000   0 0.000   0 0.000  0 0 
     22 "Garland 2 ~1" 115.00      23 "Garland 3 ~1" 115.00  "1 "  1 "                                " :  1  0.001160  0.007882  0.152963  383.8 9999.0 9999.0    0.0 0.000    0.0 /
   1    1  0.000000  0.000000  1.000000   400101   391231   0 1  0    0.0    0.0    0.0    0.0   1 1.000   0 0.000   0 0.000   0 0.000   0 0.000   0 0.000   0 0.000   0 0.000  0 0 
     23 "Garland 3 ~1" 115.00      45 "Rowlett 2 ~1" 115.00  "1 "  1 "                                " :  1  0.008175  0.017984  0.002355   97.6 9999.0 9999.0    0.0 0.000    0.0 /
   1    1  0.000000  0.000000  1.000000   400101   391231   0 1  0    0.0    0.0    0.0    0.0   1 1.000   0 0.000   0 0.000   0 0.000   0 0.000   0 0.000   0 0.000   0 0.000  0 0 
     23 "Garland 3 ~1" 115.00      77 "Mesquite 115" 115.00  "1 "  1 "                                " :  1  0.008567  0.031986  0.005428  149.4 9999.0 9999.0    0.0 0.000    0.0 /
   1    1  0.000000  0.000000  1.000000   400101   391231   0 1  0    0.0    0.0    0.0    0.0   1 1.000   0 0.000   0 0.000   0 0.000   0 0.000   0 0.000   0 0.000   0 0.000  0 0 
     23 "Garland 3 ~1" 115.00      78 "Mesquite 2~1" 115.00  "1 "  1 "                                " :  1  0.005626  0.022564  0.003309  149.4 9999.0 9999.0    0.0 0.000    0.0 /
   1    1  0.000000  0.000000  1.000000   400101   391231   0 1  0    0.0    0.0    0.0    0.0   1 1.000   0 0.000   0 0.000   0 0.000   0 0.000   0 0.000   0 0.000   0 0.000  0 0 
     23 "Garland 3 ~1" 115.00      78 "Mesquite 2~1" 115.00  "2 "  1 "                                " :  1  0.005626  0.022564  0.003309  149.4 9999.0 9999.0    0.0 0.000    0.0 /
   1    1  0.000000  0.000000  1.000000   400101   391231   0 1  0    0.0    0.0    0.0    0.0   1 1.000   0 0.000   0 0.000   0 0.000   0 0.000   0 0.000   0 0.000   0 0.000  0 0 
     23 "Garland 3 ~1" 115.00     108 "Dallas 11 ~1" 115.00  "1 "  1 "                                " :  1  0.002641  0.014578  0.139326  207.4 9999.0 9999.0    0.0 0.000    0.0 /
   1    1  0.000000  0.000000  1.000000   400101   391231   0 1  0    0.0    0.0    0.0    0.0   1 1.000   0 0.000   0 0.000   0 0.000   0 0.000   0 0.000   0 0.000   0 0.000  0 0 
     24 "Garland 4 ~1" 115.00      43 "Richardson~1" 115.00  "1 "  1 "                                " :  1  0.000863  0.005683  0.113794  310.1 9999.0 9999.0    0.0 0.000    0.0 /
...